OPT_V10/Two_days_MYC3_SOS/powerflow_results_t38.txt
Pandapower Network Debug Info
==================================================

BUS:
       vm_pu  va_degree      p_mw    q_mvar
0   0.997176   0.329463 -0.001056  0.001094
1   0.995923   0.528477 -0.001304  0.001947
2   0.994214   0.678530 -0.000224  0.002692
3   0.994533   0.501810  0.000278  0.004684
4   0.999912   0.001494  0.007320  0.009400
5   0.999901   0.001569  0.010149  0.007303
6   0.999893   0.001692  0.007767  0.010431
7   0.999948   0.001164  0.000000  0.000000
8   0.999948   0.001170  0.000000  0.000000
9   1.000000   0.000000 -0.023043 -0.042623
10  1.000000   0.000006  0.000000  0.000000
--------------------------------------------------

LINE:
   p_from_mw  q_from_mvar   p_to_mw  q_to_mvar         pl_mw       ql_mvar  i_from_ka   i_to_ka      i_ka  vm_from_pu  va_from_degree  vm_to_pu  va_to_degree  loading_percent
0   0.023033     0.038623 -0.023031  -0.038621  1.978052e-06  1.542320e-06   0.001731  0.001731  0.001731    1.000000        0.000006  0.999948      0.001164         0.752558
1   0.025238     0.027135 -0.025237  -0.027134  1.062013e-06  8.280692e-07   0.001426  0.001426  0.001426    0.999948        0.001164  0.999912      0.001494         0.620178
2  -0.002216     0.010487  0.002270  -0.010445  5.374146e-05  4.190310e-05   0.015472  0.015472  0.015472    0.999948        0.001170  0.997176      0.329463         6.726870
3  -0.017917    -0.017734  0.017917   0.017734  2.198105e-07  1.713899e-07   0.000970  0.000970  0.000970    0.999901        0.001569  0.999912      0.001494         0.421908
4  -0.007767    -0.010431  0.007767   0.010431  8.273888e-08  6.451287e-08   0.000501  0.000501  0.000501    0.999893        0.001692  0.999901      0.001569         0.217666
5   0.001521    -0.004644 -0.001507   0.004655  1.424649e-05  1.110822e-05   0.007083  0.007083  0.007083    0.995923        0.528477  0.997176      0.329463         3.079514
6  -0.000278    -0.004684  0.000293   0.004696  1.486465e-05  1.159021e-05   0.006810  0.006810  0.006810    0.994533        0.501810  0.997176      0.329463         2.961033
7   0.000224    -0.002692 -0.000218   0.002697  6.677190e-06  5.206315e-06   0.003921  0.003921  0.003921    0.994214        0.678530  0.995923      0.528477         1.704989
--------------------------------------------------

TRAFO:
    p_hv_mw  q_hv_mvar   p_lv_mw  q_lv_mvar    pl_mw  ql_mvar  i_hv_ka   i_lv_ka  vm_hv_pu  va_hv_degree  vm_lv_pu  va_lv_degree  loading_percent
0 -0.002206   0.011487  0.002216  -0.010487  0.00001    0.001  0.00045  0.015472  0.999948      0.001164  0.999948      0.001170         0.116974
1  0.023043   0.042623 -0.023033  -0.038623  0.00001    0.004  0.00040  0.001731  1.000000      0.000000  1.000000      0.000006         0.121133
--------------------------------------------------
